------------------------------------------------------------------------
--> The Simulation Project
------------------------------------------------------------------------

RUNSPEC
TITLE
   SIMUALTION-PROJECT-ALL-BLOCKS-ACTIVE-STABILITY

DIMENS
   15   15    1 /

TABDIMS
    1    1   16   12    1   12 /

OIL

WATER

FIELD

START
  20 'JAN' 1982  /

NSTACK
   24 
/   

FMTOUT
UNIFOUT

------------------------------------------------------------------------
--> The Simulation Project
------------------------------------------------------------------------

GRID

INIT
GRIDFILE
2 1
/

TOPS
   225*3264.436
/

DX
   225*98.42
/   

DY
   225*98.42
/   

DZ
   225*32.81
/      


PORO
   225*0.1 /

PERMX
   225*100  /

PERMY
   225*100 / 

PERMZ
   225*100 / 

RPTGRID
  'DX' 
  'DY' 
  'DZ' 
  'PERMX' 
  'PERMY' 
  'PERMZ' 
  'MULTZ' 
  'PORO' 
  'TOPS' 
  'PORV' 
  'TRANX' 
  'TRANY' 
  'TRANZ' 
 /

------------------------------------------------------------------------
--> The Simulation Project
------------------------------------------------------------------------
   
PROPS

SWOF
0.1	0	0.35	4.998
0.15	0.020278811	0.281576653	4.199708333
0.2	0.046588475	0.221878351	3.470833333
0.25	0.075785828	0.170498751	2.811375
0.3	0.107032208	0.127010579	2.221333333
0.35	0.139896388	0.090962006	1.700708333
0.4	0.174110113	0.061871843	1.2495
0.45	0.209488479	0.039222922	0.867708333
0.5	0.245895443	0.02245251	0.555333333
0.55	0.283226253	0.0109375	0.312375
0.6	0.321397501	0.003969081	0.138833333
0.65	0.360341032	0.000701641	0.034708333
0.7	0.4	0	0
/


PVTW
--Pref 
   4000     1.03     3.0E-6      0.40     0.0
/   

ROCK
   4000.0  0.000001 
/

--Undersaturated oil
-- Pressure    Bo        Muo
PVDO
   2500        1.260       0.5
   3000        1.257       0.55
   3500        1.254       0.6
   4000        1.251       0.6
   4500        1.248       0.6
/   

DENSITY      oil     water 
            37.45   62.020    
/

RPTPROPS
-- PROPS Reporting Options
-- 
'SWOF' 'PVTW' 'PVDO' 'DENSITY' 'GRAVITY' 'SDENSITY' 'ROCK' 'ROCKTAB' 
/

------------------------------------------------------------------------
--> The Simulation Project
------------------------------------------------------------------------

REGIONS    

------------------------------------------------------------------------
-->The Simulation Project
------------------------------------------------------------------------

SOLUTION

PRESSURE
   225*4000
/

SWAT
   112*0.1 113*0.7
/

RPTSOL
'PRES' /

------------------------------------------------------------------------
-->The Simulation Project
------------------------------------------------------------------------

SUMMARY

------------------------------------------------------------------------
-->The Simulation Project
------------------------------------------------------------------------

SCHEDULE

RPTRST
   PRESSURE SWAT BW BO KRW KRO DENW DWNO VWAT VOIL SOIL 
/


TSTEP
73*10
/

END
